[['http://www.espn.com/nba/story/_/id/18968449/jerry-krause-architect-chicago-bulls-dynasty-dies', 'http://www.blogabull.com/2017/3/21/15005734/bulls-vs-trashtors-injury-report-game-preview-lineups', 'http://www.chicagotribune.com/sports/basketball/bulls/ct-bulls-raptors-gameday-20170321-story.html'], ['http://www.sportsnet.ca/hockey/nhl/nhl-commissioner-gary-bettman-says-assume-not-going-olympics/', 'http://www.bbc.co.uk/sport/olympics/39343954', 'http://www.standard-freeholder.com/2017/03/20/nhl-stars-have-appetite-for-olympics'], ['http://www.cbc.ca/news/entertainment/betty-kennedy-obit-1.4034660', 'http://www.theunion.com/news/obituaries/obituary-of-elizabeth-betty-kennedy/', 'http://www.broadwayworld.com/bwwmusic/article/Kennedy-Center-Announces-Participants-for-19th-Annual-Betty-Carters-Jazz-Ahead-20170313'], ['http://www.cbc.ca/news/canada/edmonton/oil-spill-cleanup-underway-at-enbridge-facility-in-strathcona-county-1.4034723', 'http://www.570news.com/2017/03/21/federal-agencies-respond-to-enbridge-spill-in-industrial-area-east-of-edmonton/', 'http://www.nasdaq.com/article/enbridge-energy-eep-down-27-since-earnings-report-can-it-rebound-cm763296'], ['http://www.cbc.ca/sports/baseball/mlb/john-gibbons-contract-extension-1.4035075', 'http://www.itv.com/news/london/2017-03-21/john-gibbons-what-we-know-about-the-three-decades-old-unsolved-murder/', 'https://tipofthetower.com/2017/03/16/toronto-blue-jays-rumors-john-gibbons-2/'], ['https://www.thestar.com/sports/leafs/2017/03/21/maple-leafs-sign-jeremy-bracco-to-entry-level-contract.html', 'http://www.pensionplanpuppets.com/toronto-maple-leafs-prospects/2017/3/21/15009810/toronto-maple-leafs-sign-jeremy-bracco-to-an-elc-toronto-maple-leafs-prospects', 'http://nhl.nbcsports.com/2017/03/21/maple-leafs-sign-jeremy-bracco-to-entry-level-deal/'], ['http://www.livemint.com/Consumer/9avfy9w5BomZyWmWfJKs5K/Apple-launches-iPhone-7-iPhone-7-Plus-Red-Special-Edition-a.html', 'https://www.cnet.com/news/apples-iphone-7-and-7-plus-cases-get-fetching-new-color-options/', 'http://www.telegraph.co.uk/technology/2017/03/21/apple-launches-red-iphone-7-cheaper-ipad/'], ['https://www.bnn.ca/bank-of-canada-warns-of-material-slack-in-economy-1.702361', 'http://www.northislandgazette.com/lifestyles/416748603.html', 'http://www.bankofcanada.ca/2017/03/getting-down-business-investment-economic-outlook/'], ['http://www.espn.com/blog/carolina-panthers/post/_/id/25058/shoulder-surgery-another-reminder-cam-newton-is-not-superman-and-needs-to-evolve', 'http://www.bostonherald.com/sports/patriots/2017/03/cam_newton_to_undergo_shoulder_surgery_miss_panthers_otas', 'http://kticradio.com/abc_sports/carolina-panthers-quarterback-cam-newton-to-have-surgery-on-throwing-shoulder-abcid35882498/'], ['http://www.cbc.ca/news/canada/montreal/quebec-premier-lashes-out-at-maclean-s-for-suggesting-province-is-in-state-of-serious-dysfunction-1.4034456', 'http://www.journaldequebec.com/2017/03/21/article-dans-le-macleans-andrew-potter-se-retracte-et-sexcuse', 'http://quebec.huffingtonpost.ca/2017/03/21/andrew-potter-de-la-quebecophobie-selon-le-bloc_n_15520344.html']]